/*--------------------------------*- C++ -*----------------------------------*\
  =========                 |
  \\      /  F ield         | OpenFOAM: The Open Source CFD Toolbox
   \\    /   O peration     | Website:  https://openfoam.org
    \\  /    A nd           | Version:  12
     \\/     M anipulation  |
\*---------------------------------------------------------------------------*/
FoamFile
{
    format      ascii;
    class       dictionary;
    object      blockMeshDict;
}
// * * * * * * * * * * * * * * * * * * * * * * * * * * * * * * * * * * * * * //

convertToMeters 1;

vertices
(
    ( -0.03 -0.03 0)        //0
    (  0.03 -0.03 0)        //1
    (  0.03  0.03 0)        //2
    ( -0.03  0.03 0)        //3
    ( -0.03 -0.03 0.01)     //4
    (  0.03 -0.03 0.01)     //5
    (  0.03  0.03 0.01)     //6
    ( -0.03  0.03 0.01)     //7
);

blocks
(
    hex (0 1 2 3 4 5 6 7) (30 30 1) simpleGrading (1 1 1)
);

boundary
(
    wall
    {
        type patch;
        faces
        (
            (3 7 6 2)
         //   (0 4 7 3)
         //   (2 6 5 1)
            (1 5 4 0)
            (0 3 2 1)
            (4 5 6 7)
        );
    }
    t_i
    {
        type patch;
        faces
        (
            (0 4 7 3)
        );
    }

    t_o
    {
        type patch;
        faces
        (
            (2 6 5 1)
        );
    }

);

// ************************************************************************* //
